* SPICE NETLIST
***************************************

.SUBCKT LDDP D G S B
.ENDS
***************************************
.SUBCKT LDDN D G S B
.ENDS
***************************************
.SUBCKT crtmom PLUS MINUS BULK
.ENDS
***************************************
.SUBCKT crtmom_2t PLUS MINUS
.ENDS
***************************************
.SUBCKT crtmom_rf PLUS MINUS BULK
.ENDS
***************************************
.SUBCKT crtmom_rf_rdk PLUS MINUS BULK
.ENDS
***************************************
.SUBCKT crtmom_mx PLUS1 MINUS1 PLUS2 MINUS2 BULK
.ENDS
***************************************
.SUBCKT fmom PLUS MINUS BULK
.ENDS
***************************************
.SUBCKT fmom_mx PLUS1 MINUS1 PLUS2 MINUS2 BULK
.ENDS
***************************************
.SUBCKT lincap PLUS MINUS
.ENDS
***************************************
.SUBCKT lincap_25 PLUS MINUS
.ENDS
***************************************
.SUBCKT lincap_rf PLUS MINUS BULK
.ENDS
***************************************
.SUBCKT lincap_rf_25 PLUS MINUS BULK
.ENDS
***************************************
.SUBCKT lowcpad_d15 APAD AVSS
.ENDS
***************************************
.SUBCKT lowcpad_d23 APAD AVSS
.ENDS
***************************************
.SUBCKT mimcap_sin PLUS MINUS
.ENDS
***************************************
.SUBCKT mimcap_sin_3t PLUS MINUS BULK
.ENDS
***************************************
.SUBCKT mimcap_um_sin_rf PLUS MINUS BULK
.ENDS
***************************************
.SUBCKT mimcap_woum_sin_rf PLUS MINUS BULK
.ENDS
***************************************
.SUBCKT moscap_rf PLUS MINUS BULK
.ENDS
***************************************
.SUBCKT moscap_rf18 PLUS MINUS BULK
.ENDS
***************************************
.SUBCKT moscap_rf18_nw PLUS MINUS BULK
.ENDS
***************************************
.SUBCKT moscap_rf25 PLUS MINUS BULK
.ENDS
***************************************
.SUBCKT moscap_rf25_nw PLUS MINUS BULK
.ENDS
***************************************
.SUBCKT moscap_rf33 PLUS MINUS BULK
.ENDS
***************************************
.SUBCKT moscap_rf33_nw PLUS MINUS BULK
.ENDS
***************************************
.SUBCKT moscap_rf_hvt PLUS MINUS BULK
.ENDS
***************************************
.SUBCKT moscap_rf_hvt_nw PLUS MINUS BULK
.ENDS
***************************************
.SUBCKT moscap_rf_nw PLUS MINUS BULK
.ENDS
***************************************
.SUBCKT moscap_rf_rdk PLUS MINUS BULK
.ENDS
***************************************
.SUBCKT ndio_hia_rf PLUS MINUS
.ENDS
***************************************
.SUBCKT nmos_rf D G S B
.ENDS
***************************************
.SUBCKT nmos_rf_18 D G S B
.ENDS
***************************************
.SUBCKT nmos_rf_18_6t D G S B NG PG
.ENDS
***************************************
.SUBCKT nmos_rf_18_nodnw D G S B
.ENDS
***************************************
.SUBCKT nmos_rf_25 D G S B
.ENDS
***************************************
.SUBCKT nmos_rf_25_6t D G S B NG PG
.ENDS
***************************************
.SUBCKT nmos_rf_25_nodnw D G S B
.ENDS
***************************************
.SUBCKT nmos_rf_25_nodnwod D G S B
.ENDS
***************************************
.SUBCKT nmos_rf_25_nodnwud D G S B
.ENDS
***************************************
.SUBCKT nmos_rf_25od D G S B
.ENDS
***************************************
.SUBCKT nmos_rf_25od33_6t D G S B NG PG
.ENDS
***************************************
.SUBCKT nmos_rf_25ud D G S B
.ENDS
***************************************
.SUBCKT nmos_rf_25ud18_6t D G S B NG PG
.ENDS
***************************************
.SUBCKT nmos_rf_33 D G S B
.ENDS
***************************************
.SUBCKT nmos_rf_33_6t D G S B NG PG
.ENDS
***************************************
.SUBCKT nmos_rf_33_nodnw D G S B
.ENDS
***************************************
.SUBCKT nmos_rf_6t D G S B NG PG
.ENDS
***************************************
.SUBCKT nmos_rf_cas_nw D GB S B GT
.ENDS
***************************************
.SUBCKT nmos_rf_cross_nw DP DM S B
.ENDS
***************************************
.SUBCKT nmos_rf_diff_nw DP GP S B DM GM
.ENDS
***************************************
.SUBCKT nmos_rf_hvt D G S B
.ENDS
***************************************
.SUBCKT nmos_rf_hvt_6t D G S B NG PG
.ENDS
***************************************
.SUBCKT nmos_rf_hvt_nodnw D G S B
.ENDS
***************************************
.SUBCKT nmos_rf_lvt D G S B
.ENDS
***************************************
.SUBCKT nmos_rf_lvt_6t D G S B NG PG
.ENDS
***************************************
.SUBCKT nmos_rf_lvt_nodnw D G S B
.ENDS
***************************************
.SUBCKT nmos_rf_mlvt D G S B
.ENDS
***************************************
.SUBCKT nmos_rf_mlvt_6t D G S B NG PG
.ENDS
***************************************
.SUBCKT nmos_rf_mlvt_nodnw D G S B
.ENDS
***************************************
.SUBCKT nmos_rf_na18 D G S B
.ENDS
***************************************
.SUBCKT nmos_rf_nodnw D G S B
.ENDS
***************************************
.SUBCKT nmos_rf_rdk D G S B
.ENDS
***************************************
.SUBCKT nmoscap PLUS MINUS
.ENDS
***************************************
.SUBCKT nmoscap_18 PLUS MINUS
.ENDS
***************************************
.SUBCKT nmoscap_25 PLUS MINUS
.ENDS
***************************************
.SUBCKT nmoscap_33 PLUS MINUS
.ENDS
***************************************
.SUBCKT nmoscap_lpg PLUS MINUS
.ENDS
***************************************
.SUBCKT pdio_hia_rf PLUS MINUS BULK
.ENDS
***************************************
.SUBCKT pmos_rf D G S B
.ENDS
***************************************
.SUBCKT pmos_rf_18 D G S B
.ENDS
***************************************
.SUBCKT pmos_rf_18_5t D G S B PG
.ENDS
***************************************
.SUBCKT pmos_rf_18_nw D G S B
.ENDS
***************************************
.SUBCKT pmos_rf_18_nw_5t D G S B PG
.ENDS
***************************************
.SUBCKT pmos_rf_25 D G S B
.ENDS
***************************************
.SUBCKT pmos_rf_25_5t D G S B PG
.ENDS
***************************************
.SUBCKT pmos_rf_25_nw D G S B
.ENDS
***************************************
.SUBCKT pmos_rf_25_nw_5t D G S B PG
.ENDS
***************************************
.SUBCKT pmos_rf_25_nwod D G S B
.ENDS
***************************************
.SUBCKT pmos_rf_25_nwud D G S B
.ENDS
***************************************
.SUBCKT pmos_rf_25od D G S B
.ENDS
***************************************
.SUBCKT pmos_rf_25od33_5t D G S B PG
.ENDS
***************************************
.SUBCKT pmos_rf_25od33_nw_5t D G S B PG
.ENDS
***************************************
.SUBCKT pmos_rf_25ud D G S B
.ENDS
***************************************
.SUBCKT pmos_rf_25ud18_5t D G S B PG
.ENDS
***************************************
.SUBCKT pmos_rf_25ud18_nw_5t D G S B PG
.ENDS
***************************************
.SUBCKT pmos_rf_33 D G S B
.ENDS
***************************************
.SUBCKT pmos_rf_33_5t D G S B PG
.ENDS
***************************************
.SUBCKT pmos_rf_33_nw D G S B
.ENDS
***************************************
.SUBCKT pmos_rf_33_nw_5t D G S B PG
.ENDS
***************************************
.SUBCKT pmos_rf_5t D G S B PG
.ENDS
***************************************
.SUBCKT pmos_rf_hvt D G S B
.ENDS
***************************************
.SUBCKT pmos_rf_hvt_5t D G S B PG
.ENDS
***************************************
.SUBCKT pmos_rf_hvt_nw D G S B
.ENDS
***************************************
.SUBCKT pmos_rf_hvt_nw_5t D G S B PG
.ENDS
***************************************
.SUBCKT pmos_rf_lvt D G S B
.ENDS
***************************************
.SUBCKT pmos_rf_lvt_5t D G S B PG
.ENDS
***************************************
.SUBCKT pmos_rf_lvt_nw D G S B
.ENDS
***************************************
.SUBCKT pmos_rf_lvt_nw_5t D G S B PG
.ENDS
***************************************
.SUBCKT pmos_rf_mlvt D G S B
.ENDS
***************************************
.SUBCKT pmos_rf_mlvt_5t D G S B PG
.ENDS
***************************************
.SUBCKT pmos_rf_mlvt_nw D G S B
.ENDS
***************************************
.SUBCKT pmos_rf_mlvt_nw_5t D G S B PG
.ENDS
***************************************
.SUBCKT pmos_rf_nw D G S B
.ENDS
***************************************
.SUBCKT pmos_rf_nw_5t D G S B PG
.ENDS
***************************************
.SUBCKT pmos_rf_rdk D G S B
.ENDS
***************************************
.SUBCKT pmoscap_rf PLUS MINUS BULK
.ENDS
***************************************
.SUBCKT pmoscap_rf18 PLUS MINUS BULK
.ENDS
***************************************
.SUBCKT pmoscap_rf25 PLUS MINUS BULK
.ENDS
***************************************
.SUBCKT probe1 TOP BULK
.ENDS
***************************************
.SUBCKT probe2 TOP BULK
.ENDS
***************************************
.SUBCKT probe3 TOP BULK
.ENDS
***************************************
.SUBCKT probe4 TOP BULK
.ENDS
***************************************
.SUBCKT probe5 TOP BULK
.ENDS
***************************************
.SUBCKT probe6 TOP BULK
.ENDS
***************************************
.SUBCKT probe7 TOP BULK
.ENDS
***************************************
.SUBCKT rfesd_rf1 APAD CPAD DCPAD GNODE
.ENDS
***************************************
.SUBCKT rfesd_rf2 APAD CPAD DCPAD GNODE
.ENDS
***************************************
.SUBCKT rfesd_rf3 APAD CPAD DCPAD GNODE
.ENDS
***************************************
.SUBCKT rfesd_rf4 APAD CPAD DCPAD GNODE
.ENDS
***************************************
.SUBCKT rfesd_rf5 APAD CPAD DCPAD GNODE
.ENDS
***************************************
.SUBCKT rfesd_rf6 APAD CPAD DCPAD GNODE
.ENDS
***************************************
.SUBCKT rfesd_rf7 APAD CPAD DCPAD GNODE
.ENDS
***************************************
.SUBCKT rfesd_rf8 APAD CPAD DCPAD GNODE
.ENDS
***************************************
.SUBCKT rm1 PLUS MINUS
.ENDS
***************************************
.SUBCKT rm10 PLUS MINUS
.ENDS
***************************************
.SUBCKT rm2 PLUS MINUS
.ENDS
***************************************
.SUBCKT rm3 PLUS MINUS
.ENDS
***************************************
.SUBCKT rm4 PLUS MINUS
.ENDS
***************************************
.SUBCKT rm5 PLUS MINUS
.ENDS
***************************************
.SUBCKT rm6 PLUS MINUS
.ENDS
***************************************
.SUBCKT rm7 PLUS MINUS
.ENDS
***************************************
.SUBCKT rm8 PLUS MINUS
.ENDS
***************************************
.SUBCKT rm9 PLUS MINUS
.ENDS
***************************************
.SUBCKT rnodl PLUS MINUS
.ENDS
***************************************
.SUBCKT rnodl_m PLUS MINUS BULK
.ENDS
***************************************
.SUBCKT rnods PLUS MINUS
.ENDS
***************************************
.SUBCKT rnods_m PLUS MINUS BULK
.ENDS
***************************************
.SUBCKT rnodwo PLUS MINUS
.ENDS
***************************************
.SUBCKT rnodwo_m PLUS MINUS BULK
.ENDS
***************************************
.SUBCKT rnpolyl PLUS MINUS
.ENDS
***************************************
.SUBCKT rnpolyl_m PLUS MINUS BULK
.ENDS
***************************************
.SUBCKT rnpolys PLUS MINUS
.ENDS
***************************************
.SUBCKT rnpolys_m PLUS MINUS BULK
.ENDS
***************************************
.SUBCKT rnpolywo PLUS MINUS
.ENDS
***************************************
.SUBCKT rnpolywo_m PLUS MINUS BULK
.ENDS
***************************************
.SUBCKT rnwod PLUS MINUS
.ENDS
***************************************
.SUBCKT rnwod_m PLUS MINUS BULK
.ENDS
***************************************
.SUBCKT rnwsti PLUS MINUS
.ENDS
***************************************
.SUBCKT rnwsti_m PLUS MINUS BULK
.ENDS
***************************************
.SUBCKT rpodl PLUS MINUS
.ENDS
***************************************
.SUBCKT rpodl_m PLUS MINUS BULK
.ENDS
***************************************
.SUBCKT rpods PLUS MINUS
.ENDS
***************************************
.SUBCKT rpods_m PLUS MINUS BULK
.ENDS
***************************************
.SUBCKT rpodwo PLUS MINUS
.ENDS
***************************************
.SUBCKT rpodwo_m PLUS MINUS BULK
.ENDS
***************************************
.SUBCKT rppolyl PLUS MINUS
.ENDS
***************************************
.SUBCKT rppolyl_m PLUS MINUS BULK
.ENDS
***************************************
.SUBCKT rppolyl_rf PLUS MINUS BULK
.ENDS
***************************************
.SUBCKT rppolyl_rf_rdk PLUS MINUS BULK
.ENDS
***************************************
.SUBCKT rppolys PLUS MINUS
.ENDS
***************************************
.SUBCKT rppolys_m PLUS MINUS BULK
.ENDS
***************************************
.SUBCKT rppolys_rf PLUS MINUS BULK
.ENDS
***************************************
.SUBCKT rppolys_rf_rdk PLUS MINUS BULK
.ENDS
***************************************
.SUBCKT rppolywo PLUS MINUS
.ENDS
***************************************
.SUBCKT rppolywo_m PLUS MINUS BULK
.ENDS
***************************************
.SUBCKT rppolywo_rf PLUS MINUS BULK
.ENDS
***************************************
.SUBCKT rppolywo_rf_rdk PLUS MINUS BULK
.ENDS
***************************************
.SUBCKT sbd_rf PLUS MINUS BULK
.ENDS
***************************************
.SUBCKT sbd_rf_nw PLUS MINUS BULK
.ENDS
***************************************
.SUBCKT sline_gscpw_mu PLUS MINUS BULK
.ENDS
***************************************
.SUBCKT sline_ms_mu PLUS MINUS BULK
.ENDS
***************************************
.SUBCKT spiral_std_mu_z PLUS MINUS BULK
.ENDS
***************************************
.SUBCKT spiral_std_mu_z_rdk PLUS MINUS BULK
.ENDS
***************************************
.SUBCKT spiral_sym_ct_mu_z PLUS MINUS BULK CTAP
.ENDS
***************************************
.SUBCKT spiral_sym_ct_mu_z_rdk PLUS MINUS BULK CTAP
.ENDS
***************************************
.SUBCKT spiral_sym_mu_z PLUS MINUS BULK
.ENDS
***************************************
.SUBCKT spiral_sym_mu_z_rdk PLUS MINUS BULK
.ENDS
***************************************
.SUBCKT xjvar PLUS MINUS BULK
.ENDS
***************************************
.SUBCKT xjvar_nw PLUS MINUS BULK
.ENDS
***************************************
.SUBCKT mimcap_CDNS_764966941090 1 2
** N=2 EP=2 IP=0 FDC=1
X0 2 1 mimcap_sin lt=5e-05 wt=5e-05 mimflag=3 $X=0 $Y=0 $D=325
.ENDS
***************************************
.SUBCKT FILL2BWP7T
** N=4 EP=0 IP=0 FDC=0
*.CALIBRE ISOLATED NETS: VSS VDD
.ENDS
***************************************
.SUBCKT FILL1BWP7T
** N=3 EP=0 IP=0 FDC=0
*.CALIBRE ISOLATED NETS: VSS VDD
.ENDS
***************************************
.SUBCKT ICV_5
** N=2 EP=0 IP=4 FDC=0
.ENDS
***************************************
.SUBCKT DCAP16BWP7T VDD VSS
** N=4 EP=2 IP=0 FDC=8
M0 VSS 3 VSS VSS nch L=6.25e-07 W=1.7e-07 $X=225 $Y=260 $D=4
M1 VSS 3 VSS VSS nch L=6.1e-07 W=1.7e-07 $X=1150 $Y=260 $D=4
M2 VSS 3 VSS VSS nch L=6.1e-07 W=1.7e-07 $X=2035 $Y=260 $D=4
M3 4 3 VSS VSS nch L=6e-08 W=1.7e-07 $X=2915 $Y=260 $D=4
M4 VDD 4 VDD VDD pch L=6.1e-07 W=2.15e-07 $X=240 $Y=925 $D=103
M5 VDD 4 VDD VDD pch L=6.1e-07 W=2.15e-07 $X=1150 $Y=925 $D=103
M6 VDD 4 VDD VDD pch L=6.1e-07 W=2.15e-07 $X=2035 $Y=925 $D=103
M7 3 4 VDD VDD pch L=6e-08 W=2.15e-07 $X=2850 $Y=925 $D=103
.ENDS
***************************************
.SUBCKT ICV_11 1 2
** N=2 EP=2 IP=4 FDC=8
X1 2 1 DCAP16BWP7T $T=0 0 0 0 $X=-235 $Y=-105
.ENDS
***************************************
.SUBCKT ICV_17 1 2
** N=2 EP=2 IP=4 FDC=8
X1 1 2 ICV_11 $T=600 0 0 0 $X=365 $Y=-105
.ENDS
***************************************
.SUBCKT DCAP4BWP7T VSS VDD
** N=4 EP=2 IP=0 FDC=4
M0 VSS 4 VSS VSS nch L=6e-08 W=2.5e-07 $X=240 $Y=200 $D=4
M1 3 4 VSS VSS nch L=6e-08 W=2.5e-07 $X=505 $Y=200 $D=4
M2 VDD 3 VDD VDD pch L=6e-08 W=3.2e-07 $X=250 $Y=880 $D=103
M3 4 3 VDD VDD pch L=6e-08 W=3.2e-07 $X=515 $Y=880 $D=103
.ENDS
***************************************
.SUBCKT TAPCELLBWP7T
** N=2 EP=0 IP=0 FDC=0
*.CALIBRE ISOLATED NETS: VSS VDD
.ENDS
***************************************
.SUBCKT ICV_9 1 2
** N=2 EP=2 IP=4 FDC=4
X0 1 2 DCAP4BWP7T $T=0 0 0 0 $X=-235 $Y=-105
.ENDS
***************************************
.SUBCKT ICV_18 1 2
** N=2 EP=2 IP=4 FDC=4
X1 1 2 ICV_9 $T=0 0 0 0 $X=-235 $Y=-105
.ENDS
***************************************
.SUBCKT DCAP32BWP7T VDD VSS
** N=4 EP=2 IP=0 FDC=16
M0 VSS 3 4 VSS nch L=6e-08 W=1.7e-07 $X=230 $Y=260 $D=4
M1 VSS 3 VSS VSS nch L=6e-07 W=1.7e-07 $X=570 $Y=260 $D=4
M2 VSS 3 VSS VSS nch L=6.1e-07 W=1.7e-07 $X=1445 $Y=260 $D=4
M3 VSS 3 VSS VSS nch L=6.95e-07 W=1.7e-07 $X=2355 $Y=260 $D=4
M4 VSS 3 VSS VSS nch L=6.6e-07 W=1.7e-07 $X=3390 $Y=260 $D=4
M5 VSS 3 VSS VSS nch L=6.1e-07 W=1.7e-07 $X=4350 $Y=260 $D=4
M6 VSS 3 VSS VSS nch L=5.95e-07 W=1.7e-07 $X=5235 $Y=260 $D=4
M7 4 3 VSS VSS nch L=6e-08 W=1.7e-07 $X=6115 $Y=260 $D=4
M8 VDD 4 3 VDD pch L=6e-08 W=2.15e-07 $X=295 $Y=925 $D=103
M9 VDD 4 VDD VDD pch L=6.1e-07 W=2.15e-07 $X=560 $Y=925 $D=103
M10 VDD 4 VDD VDD pch L=6.1e-07 W=2.15e-07 $X=1445 $Y=925 $D=103
M11 VDD 4 VDD VDD pch L=6.95e-07 W=2.15e-07 $X=2355 $Y=925 $D=103
M12 VDD 4 VDD VDD pch L=6.6e-07 W=2.15e-07 $X=3390 $Y=925 $D=103
M13 VDD 4 VDD VDD pch L=6.1e-07 W=2.15e-07 $X=4350 $Y=925 $D=103
M14 VDD 4 VDD VDD pch L=6.1e-07 W=2.15e-07 $X=5235 $Y=925 $D=103
M15 3 4 VDD VDD pch L=6e-08 W=2.15e-07 $X=6050 $Y=925 $D=103
.ENDS
***************************************
.SUBCKT DCAP8BWP7T VDD VSS
** N=4 EP=2 IP=0 FDC=4
M0 VSS 3 VSS VSS nch L=8.05e-07 W=1.7e-07 $X=225 $Y=260 $D=4
M1 4 3 VSS VSS nch L=6e-08 W=1.7e-07 $X=1315 $Y=260 $D=4
M2 VDD 4 VDD VDD pch L=8.1e-07 W=2.2e-07 $X=240 $Y=920 $D=103
M3 3 4 VDD VDD pch L=6e-08 W=2.2e-07 $X=1250 $Y=920 $D=103
.ENDS
***************************************
.SUBCKT ICV_1 1 2
** N=2 EP=2 IP=4 FDC=4
X1 1 2 DCAP4BWP7T $T=200 0 0 0 $X=-35 $Y=-105
.ENDS
***************************************
.SUBCKT ICV_12 1 2
** N=2 EP=2 IP=6 FDC=24
X0 1 2 DCAP32BWP7T $T=0 0 0 0 $X=-235 $Y=-105
X1 1 2 DCAP8BWP7T $T=6400 0 0 0 $X=6165 $Y=-105
X2 2 1 ICV_1 $T=8000 0 0 0 $X=7765 $Y=-105
.ENDS
***************************************
.SUBCKT ICV_19 1 2
** N=2 EP=2 IP=12 FDC=72
X0 1 2 ICV_17 $T=0 0 0 0 $X=-235 $Y=-105
X1 1 2 ICV_17 $T=0 2800 1 0 $X=-235 $Y=1165
X2 1 2 ICV_18 $T=4200 0 0 0 $X=3965 $Y=-105
X3 1 2 ICV_18 $T=4200 2800 1 0 $X=3965 $Y=1165
X4 2 1 ICV_12 $T=6000 0 0 0 $X=5765 $Y=-105
X5 2 1 ICV_12 $T=6000 2800 1 0 $X=5765 $Y=1165
.ENDS
***************************************
.SUBCKT ICV_4 1 2
** N=2 EP=2 IP=4 FDC=4
X1 2 1 DCAP8BWP7T $T=0 0 0 0 $X=-235 $Y=-105
.ENDS
***************************************
.SUBCKT ICV_13 1 2
** N=2 EP=2 IP=4 FDC=4
X1 1 2 ICV_1 $T=600 0 0 0 $X=365 $Y=-105
.ENDS
***************************************
.SUBCKT ICV_10 1 2
** N=2 EP=2 IP=4 FDC=4
X1 2 1 DCAP8BWP7T $T=200 0 0 0 $X=-35 $Y=-105
.ENDS
***************************************
.SUBCKT ICV_14
** N=2 EP=0 IP=4 FDC=0
.ENDS
***************************************
.SUBCKT ICV_15 1 2
** N=2 EP=2 IP=6 FDC=20
X0 1 2 DCAP32BWP7T $T=0 0 0 0 $X=-235 $Y=-105
X1 2 1 ICV_10 $T=6400 0 0 0 $X=6165 $Y=-105
.ENDS
***************************************
.SUBCKT ICV_16 1 2
** N=2 EP=2 IP=14 FDC=44
X3 2 1 DCAP32BWP7T $T=1800 0 0 0 $X=1565 $Y=-105
X4 1 2 ICV_4 $T=8200 0 0 0 $X=7965 $Y=-105
X5 1 2 ICV_13 $T=0 0 0 0 $X=-235 $Y=-105
X6 2 1 ICV_15 $T=11200 0 0 0 $X=10965 $Y=-105
.ENDS
***************************************
.SUBCKT FILL32BWP7T
** N=51 EP=0 IP=0 FDC=0
*.CALIBRE ISOLATED NETS: VSS VDD
.ENDS
***************************************
.SUBCKT FILL8BWP7T
** N=12 EP=0 IP=0 FDC=0
*.CALIBRE ISOLATED NETS: VSS VDD
.ENDS
***************************************
.SUBCKT FILL16BWP7T
** N=27 EP=0 IP=0 FDC=0
*.CALIBRE ISOLATED NETS: VSS VDD
.ENDS
***************************************
.SUBCKT ICV_2 1 2
** N=2 EP=2 IP=4 FDC=8
X1 2 1 DCAP16BWP7T $T=200 0 0 0 $X=-35 $Y=-105
.ENDS
***************************************
.SUBCKT DFKCNQD1BWP7T CP CN D VDD VSS Q
** N=18 EP=6 IP=0 FDC=26
M0 VSS CP 9 VSS nch L=6e-08 W=1.5e-07 $X=225 $Y=350 $D=4
M1 11 9 VSS VSS nch L=6e-08 W=1.5e-07 $X=470 $Y=350 $D=4
M2 16 CN VSS VSS nch L=6e-08 W=2.8e-07 $X=950 $Y=220 $D=4
M3 17 D 16 VSS nch L=6e-08 W=2.8e-07 $X=1185 $Y=220 $D=4
M4 8 9 17 VSS nch L=6e-08 W=2.8e-07 $X=1420 $Y=220 $D=4
M5 18 11 8 VSS nch L=6e-08 W=1.5e-07 $X=1845 $Y=350 $D=4
M6 VSS 10 18 VSS nch L=6e-08 W=1.5e-07 $X=2095 $Y=350 $D=4
M7 10 8 VSS VSS nch L=6e-08 W=2.7e-07 $X=2405 $Y=265 $D=4
M8 12 11 10 VSS nch L=6e-08 W=1.5e-07 $X=2690 $Y=350 $D=4
M9 13 9 12 VSS nch L=6e-08 W=1.5e-07 $X=3045 $Y=250 $D=4
M10 VSS 14 13 VSS nch L=6e-08 W=1.5e-07 $X=3385 $Y=250 $D=4
M11 14 12 VSS VSS nch L=6e-08 W=1.9e-07 $X=3635 $Y=345 $D=4
M12 Q 14 VSS VSS nch L=6e-08 W=2.8e-07 $X=4110 $Y=220 $D=4
M13 VDD CP 9 VDD pch L=6e-08 W=1.9e-07 $X=225 $Y=820 $D=103
M14 11 9 VDD VDD pch L=6e-08 W=1.9e-07 $X=470 $Y=820 $D=103
M15 VDD CN 7 VDD pch L=6e-08 W=1.9e-07 $X=960 $Y=820 $D=103
M16 7 D VDD VDD pch L=6e-08 W=3.6e-07 $X=1200 $Y=820 $D=103
M17 8 11 7 VDD pch L=6e-08 W=1.95e-07 $X=1545 $Y=985 $D=103
M18 15 9 8 VDD pch L=6e-08 W=1.5e-07 $X=1930 $Y=900 $D=103
M19 VDD 10 15 VDD pch L=6e-08 W=1.5e-07 $X=2155 $Y=900 $D=103
M20 10 8 VDD VDD pch L=6e-08 W=3.25e-07 $X=2475 $Y=855 $D=103
M21 12 9 10 VDD pch L=6e-08 W=1.5e-07 $X=2820 $Y=900 $D=103
M22 13 11 12 VDD pch L=6e-08 W=1.5e-07 $X=3095 $Y=900 $D=103
M23 VDD 14 13 VDD pch L=6e-08 W=1.9e-07 $X=3385 $Y=900 $D=103
M24 14 12 VDD VDD pch L=6e-08 W=1.9e-07 $X=3635 $Y=855 $D=103
M25 Q 14 VDD VDD pch L=6e-08 W=3.25e-07 $X=4110 $Y=855 $D=103
.ENDS
***************************************
.SUBCKT FILL4BWP7T
** N=6 EP=0 IP=0 FDC=0
*.CALIBRE ISOLATED NETS: VSS VDD
.ENDS
***************************************
.SUBCKT HA1D0BWP7T CO B A VSS VDD S
** N=13 EP=6 IP=0 FDC=18
M0 VSS 7 CO VSS nch L=6e-08 W=1.5e-07 $X=215 $Y=200 $D=4
M1 12 B VSS VSS nch L=6e-08 W=1.5e-07 $X=485 $Y=380 $D=4
M2 7 A 12 VSS nch L=6e-08 W=1.5e-07 $X=685 $Y=380 $D=4
M3 VSS A 8 VSS nch L=6e-08 W=1.5e-07 $X=1175 $Y=380 $D=4
M4 13 8 VSS VSS nch L=6e-08 W=1.5e-07 $X=1435 $Y=380 $D=4
M5 10 B 13 VSS nch L=6e-08 W=1.5e-07 $X=1625 $Y=380 $D=4
M6 8 9 10 VSS nch L=6e-08 W=1.5e-07 $X=1895 $Y=380 $D=4
M7 VSS B 9 VSS nch L=6e-08 W=1.5e-07 $X=2465 $Y=275 $D=4
M8 S 10 VSS VSS nch L=6e-08 W=1.5e-07 $X=2725 $Y=275 $D=4
M9 VDD 7 CO VDD pch L=6e-08 W=1.9e-07 $X=215 $Y=850 $D=103
M10 7 B VDD VDD pch L=6e-08 W=1.9e-07 $X=455 $Y=850 $D=103
M11 VDD A 7 VDD pch L=6e-08 W=1.9e-07 $X=715 $Y=850 $D=103
M12 VDD A 8 VDD pch L=6e-08 W=2.65e-07 $X=1195 $Y=915 $D=103
M13 11 8 VDD VDD pch L=6e-08 W=2.3e-07 $X=1455 $Y=970 $D=103
M14 10 9 11 VDD pch L=6e-08 W=2.3e-07 $X=1670 $Y=970 $D=103
M15 8 B 10 VDD pch L=6e-08 W=1.9e-07 $X=1985 $Y=1010 $D=103
M16 VDD B 9 VDD pch L=6e-08 W=1.9e-07 $X=2485 $Y=820 $D=103
M17 S 10 VDD VDD pch L=6e-08 W=1.9e-07 $X=2725 $Y=820 $D=103
.ENDS
***************************************
.SUBCKT OAI31D1BWP7T A1 A2 A3 ZN B VDD VSS
** N=10 EP=7 IP=0 FDC=8
M0 8 A1 ZN VSS nch L=6e-08 W=3e-07 $X=225 $Y=200 $D=4
M1 ZN A2 8 VSS nch L=6e-08 W=3e-07 $X=490 $Y=200 $D=4
M2 8 A3 ZN VSS nch L=6e-08 W=3e-07 $X=755 $Y=200 $D=4
M3 VSS B 8 VSS nch L=6e-08 W=3e-07 $X=1065 $Y=200 $D=4
M4 9 A1 VDD VDD pch L=6e-08 W=3.8e-07 $X=225 $Y=820 $D=103
M5 10 A2 9 VDD pch L=6e-08 W=3.8e-07 $X=490 $Y=820 $D=103
M6 ZN A3 10 VDD pch L=6e-08 W=3.8e-07 $X=755 $Y=820 $D=103
M7 VDD B ZN VDD pch L=6e-08 W=3.8e-07 $X=1065 $Y=820 $D=103
.ENDS
***************************************
.SUBCKT AOI21D0BWP7T A2 ZN A1 B VDD VSS
** N=8 EP=6 IP=0 FDC=6
M0 8 A2 VSS VSS nch L=6e-08 W=1.5e-07 $X=215 $Y=200 $D=4
M1 ZN A1 8 VSS nch L=6e-08 W=1.5e-07 $X=415 $Y=200 $D=4
M2 VSS B ZN VSS nch L=6e-08 W=1.5e-07 $X=695 $Y=200 $D=4
M3 ZN A2 7 VDD pch L=6e-08 W=1.9e-07 $X=195 $Y=860 $D=103
M4 7 A1 ZN VDD pch L=6e-08 W=1.9e-07 $X=455 $Y=860 $D=103
M5 VDD B 7 VDD pch L=6e-08 W=1.9e-07 $X=695 $Y=860 $D=103
.ENDS
***************************************
.SUBCKT MUX2ND0BWP7T I0 S ZN I1 VSS VDD
** N=11 EP=6 IP=0 FDC=10
M0 VSS S 7 VSS nch L=6e-08 W=1.5e-07 $X=225 $Y=200 $D=4
M1 10 I0 VSS VSS nch L=6e-08 W=1.5e-07 $X=485 $Y=200 $D=4
M2 ZN 7 10 VSS nch L=6e-08 W=1.5e-07 $X=710 $Y=200 $D=4
M3 11 S ZN VSS nch L=6e-08 W=1.5e-07 $X=975 $Y=200 $D=4
M4 VSS I1 11 VSS nch L=6e-08 W=1.5e-07 $X=1265 $Y=200 $D=4
M5 VDD S 7 VDD pch L=6e-08 W=1.9e-07 $X=225 $Y=820 $D=103
M6 8 I0 VDD VDD pch L=6e-08 W=1.8e-07 $X=505 $Y=820 $D=103
M7 ZN S 8 VDD pch L=6e-08 W=1.9e-07 $X=765 $Y=1010 $D=103
M8 9 7 ZN VDD pch L=6e-08 W=1.9e-07 $X=1040 $Y=1010 $D=103
M9 VDD I1 9 VDD pch L=6e-08 W=1.9e-07 $X=1265 $Y=1010 $D=103
.ENDS
***************************************
.SUBCKT ICV_8
** N=2 EP=0 IP=4 FDC=0
.ENDS
***************************************
.SUBCKT ICV_6
** N=2 EP=0 IP=4 FDC=0
.ENDS
***************************************
.SUBCKT IND2D1BWP7T A1 VSS ZN B1 VDD
** N=7 EP=5 IP=0 FDC=6
M0 VSS A1 6 VSS nch L=6e-08 W=1.5e-07 $X=215 $Y=200 $D=4
M1 7 6 VSS VSS nch L=6e-08 W=3e-07 $X=475 $Y=200 $D=4
M2 ZN B1 7 VSS nch L=6e-08 W=3e-07 $X=705 $Y=200 $D=4
M3 VDD A1 6 VDD pch L=6e-08 W=1.9e-07 $X=215 $Y=820 $D=103
M4 ZN 6 VDD VDD pch L=6e-08 W=3.6e-07 $X=455 $Y=820 $D=103
M5 VDD B1 ZN VDD pch L=6e-08 W=3.8e-07 $X=715 $Y=820 $D=103
.ENDS
***************************************
.SUBCKT IOA21D0BWP7T A1 A2 VSS ZN B VDD
** N=9 EP=6 IP=0 FDC=8
M0 8 A1 7 VSS nch L=6e-08 W=1.5e-07 $X=215 $Y=220 $D=4
M1 VSS A2 8 VSS nch L=6e-08 W=1.5e-07 $X=415 $Y=220 $D=4
M2 9 7 VSS VSS nch L=6e-08 W=1.5e-07 $X=725 $Y=220 $D=4
M3 ZN B 9 VSS nch L=6e-08 W=1.5e-07 $X=925 $Y=220 $D=4
M4 7 A1 VDD VDD pch L=6e-08 W=1.8e-07 $X=190 $Y=835 $D=103
M5 VDD A2 7 VDD pch L=6e-08 W=1.8e-07 $X=450 $Y=835 $D=103
M6 ZN 7 VDD VDD pch L=6e-08 W=1.8e-07 $X=690 $Y=835 $D=103
M7 VDD B ZN VDD pch L=6e-08 W=1.8e-07 $X=950 $Y=835 $D=103
.ENDS
***************************************
.SUBCKT EDFKCNQD1BWP7T E D CN CP VSS VDD Q
** N=23 EP=7 IP=0 FDC=34
M0 8 E VSS VSS nch L=6e-08 W=1.5e-07 $X=235 $Y=350 $D=4
M1 21 17 9 VSS nch L=6e-08 W=1.5e-07 $X=725 $Y=380 $D=4
M2 12 8 21 VSS nch L=6e-08 W=1.5e-07 $X=925 $Y=380 $D=4
M3 22 E 12 VSS nch L=6e-08 W=2.3e-07 $X=1200 $Y=200 $D=4
M4 9 D 22 VSS nch L=6e-08 W=2.3e-07 $X=1400 $Y=200 $D=4
M5 VSS CN 9 VSS nch L=6e-08 W=2.3e-07 $X=1660 $Y=200 $D=4
M6 VSS CP 10 VSS nch L=6e-08 W=1.5e-07 $X=2255 $Y=385 $D=4
M7 11 10 VSS VSS nch L=6e-08 W=1.5e-07 $X=2495 $Y=385 $D=4
M8 13 10 12 VSS nch L=6e-08 W=1.5e-07 $X=3010 $Y=200 $D=4
M9 23 11 13 VSS nch L=6e-08 W=1.5e-07 $X=3290 $Y=220 $D=4
M10 VSS 14 23 VSS nch L=6e-08 W=1.5e-07 $X=3490 $Y=220 $D=4
M11 14 13 VSS VSS nch L=6e-08 W=3.05e-07 $X=3800 $Y=230 $D=4
M12 15 11 14 VSS nch L=6e-08 W=1.5e-07 $X=4135 $Y=350 $D=4
M13 17 10 15 VSS nch L=6e-08 W=1.5e-07 $X=4460 $Y=220 $D=4
M14 VSS 16 17 VSS nch L=6e-08 W=1.5e-07 $X=4800 $Y=220 $D=4
M15 16 15 VSS VSS nch L=6e-08 W=1.9e-07 $X=5040 $Y=345 $D=4
M16 Q 16 VSS VSS nch L=6e-08 W=2.8e-07 $X=5515 $Y=220 $D=4
M17 VDD E 8 VDD pch L=6e-08 W=1.5e-07 $X=225 $Y=895 $D=103
M18 18 E VDD VDD pch L=6e-08 W=1.7e-07 $X=535 $Y=1010 $D=103
M19 12 17 18 VDD pch L=6e-08 W=1.7e-07 $X=760 $Y=1010 $D=103
M20 19 8 12 VDD pch L=6e-08 W=3.5e-07 $X=1100 $Y=850 $D=103
M21 VDD D 19 VDD pch L=6e-08 W=3.5e-07 $X=1300 $Y=850 $D=103
M22 12 CN VDD VDD pch L=6e-08 W=1.5e-07 $X=1710 $Y=850 $D=103
M23 VDD CP 10 VDD pch L=6e-08 W=1.9e-07 $X=2290 $Y=855 $D=103
M24 11 10 VDD VDD pch L=6e-08 W=1.9e-07 $X=2530 $Y=855 $D=103
M25 13 11 12 VDD pch L=6e-08 W=1.65e-07 $X=3020 $Y=855 $D=103
M26 20 10 13 VDD pch L=6e-08 W=1.5e-07 $X=3300 $Y=950 $D=103
M27 VDD 14 20 VDD pch L=6e-08 W=1.65e-07 $X=3575 $Y=855 $D=103
M28 14 13 VDD VDD pch L=6e-08 W=1.65e-07 $X=3955 $Y=855 $D=103
M29 15 10 14 VDD pch L=6e-08 W=1.5e-07 $X=4265 $Y=900 $D=103
M30 17 11 15 VDD pch L=6e-08 W=1.5e-07 $X=4525 $Y=900 $D=103
M31 VDD 16 17 VDD pch L=6e-08 W=1.5e-07 $X=4825 $Y=900 $D=103
M32 16 15 VDD VDD pch L=6e-08 W=1.9e-07 $X=5065 $Y=865 $D=103
M33 Q 16 VDD VDD pch L=6e-08 W=3.25e-07 $X=5525 $Y=855 $D=103
.ENDS
***************************************
.SUBCKT XOR2D1BWP7T A1 A2 VDD VSS Z
** N=10 EP=5 IP=0 FDC=12
M0 VSS A1 6 VSS nch L=6e-08 W=1.5e-07 $X=215 $Y=350 $D=4
M1 10 7 VSS VSS nch L=6e-08 W=1.5e-07 $X=545 $Y=380 $D=4
M2 8 A1 10 VSS nch L=6e-08 W=1.5e-07 $X=835 $Y=200 $D=4
M3 7 6 8 VSS nch L=6e-08 W=1.5e-07 $X=1095 $Y=200 $D=4
M4 VSS A2 7 VSS nch L=6e-08 W=1.5e-07 $X=1385 $Y=385 $D=4
M5 Z 8 VSS VSS nch L=6e-08 W=2.8e-07 $X=1715 $Y=220 $D=4
M6 VDD A1 6 VDD pch L=6e-08 W=1.9e-07 $X=215 $Y=1010 $D=103
M7 9 7 VDD VDD pch L=6e-08 W=1.5e-07 $X=515 $Y=850 $D=103
M8 8 6 9 VDD pch L=6e-08 W=1.5e-07 $X=725 $Y=850 $D=103
M9 7 A1 8 VDD pch L=6e-08 W=1.9e-07 $X=995 $Y=1010 $D=103
M10 VDD A2 7 VDD pch L=6e-08 W=1.9e-07 $X=1305 $Y=1010 $D=103
M11 Z 8 VDD VDD pch L=6e-08 W=3.45e-07 $X=1715 $Y=855 $D=103
.ENDS
***************************************
.SUBCKT INR2XD0BWP7T A1 VDD ZN B1 VSS
** N=7 EP=5 IP=0 FDC=6
M0 VSS A1 6 VSS nch L=6e-08 W=1.5e-07 $X=215 $Y=350 $D=4
M1 ZN 6 VSS VSS nch L=6e-08 W=1.5e-07 $X=455 $Y=350 $D=4
M2 VSS B1 ZN VSS nch L=6e-08 W=1.5e-07 $X=715 $Y=350 $D=4
M3 VDD A1 6 VDD pch L=6e-08 W=1.9e-07 $X=215 $Y=1010 $D=103
M4 7 6 VDD VDD pch L=6e-08 W=3.8e-07 $X=475 $Y=820 $D=103
M5 ZN B1 7 VDD pch L=6e-08 W=3.8e-07 $X=685 $Y=820 $D=103
.ENDS
***************************************
.SUBCKT XNR2D1BWP7T A1 A2 VDD VSS ZN
** N=10 EP=5 IP=0 FDC=12
M0 VSS A1 6 VSS nch L=6e-08 W=1.5e-07 $X=215 $Y=200 $D=4
M1 10 7 VSS VSS nch L=6e-08 W=1.5e-07 $X=535 $Y=380 $D=4
M2 8 6 10 VSS nch L=6e-08 W=1.5e-07 $X=735 $Y=380 $D=4
M3 7 A1 8 VSS nch L=6e-08 W=1.5e-07 $X=1055 $Y=200 $D=4
M4 VSS A2 7 VSS nch L=6e-08 W=3e-07 $X=1355 $Y=230 $D=4
M5 ZN 8 VSS VSS nch L=6e-08 W=2.8e-07 $X=1715 $Y=220 $D=4
M6 VDD A1 6 VDD pch L=6e-08 W=1.9e-07 $X=215 $Y=1010 $D=103
M7 9 7 VDD VDD pch L=6e-08 W=1.5e-07 $X=500 $Y=850 $D=103
M8 8 A1 9 VDD pch L=6e-08 W=1.7e-07 $X=760 $Y=1030 $D=103
M9 7 6 8 VDD pch L=6e-08 W=1.9e-07 $X=1050 $Y=850 $D=103
M10 VDD A2 7 VDD pch L=6e-08 W=3.5e-07 $X=1355 $Y=850 $D=103
M11 ZN 8 VDD VDD pch L=6e-08 W=3.5e-07 $X=1715 $Y=850 $D=103
.ENDS
***************************************
.SUBCKT BUFFD1BWP7T I VSS VDD Z
** N=5 EP=4 IP=0 FDC=4
M0 VSS I 5 VSS nch L=6e-08 W=1.5e-07 $X=225 $Y=200 $D=4